Version 4
SHEET 1 1200 400
WIRE 128 0 0 0
WIRE 240 0 208 0
WIRE 272 0 240 0
WIRE 416 0 352 0
WIRE 480 0 416 0
WIRE 832 0 560 0
WIRE 0 64 0 0
WIRE 240 64 240 0
WIRE 416 64 416 0
WIRE 832 64 832 0
WIRE 0 208 0 144
WIRE 240 208 240 128
WIRE 416 208 416 128
WIRE 832 208 832 144
FLAG 0 208 0
FLAG 416 208 0
FLAG 240 208 0
FLAG 832 208 0
SYMBOL voltage 0 48 R0
WINDOW 123 40 48 Left 2
WINDOW 39 39 77 Left 2
SYMATTR Value2 AC 1 0
SYMATTR SpiceLine Rser=50.00
SYMATTR InstName V1
SYMATTR Value ""
SYMBOL ind 256 16 R270
WINDOW 0 32 56 VTop 2
WINDOW 3 5 56 VBottom 2
WINDOW 39 -36 57 VTop 1
SYMATTR InstName L2
SYMATTR Value 480n
SYMATTR SpiceLine Rser=735.1m
SYMBOL cap 400 64 R0
SYMATTR InstName C3
SYMATTR Value 150p
SYMBOL ind 464 16 R270
WINDOW 0 32 56 VTop 2
WINDOW 3 5 56 VBottom 2
WINDOW 39 -36 57 VTop 1
SYMATTR InstName L4
SYMATTR Value 280n
SYMATTR SpiceLine Rser=735.1m
SYMBOL cap 224 64 R0
SYMATTR InstName C5
SYMATTR Value 150p
SYMBOL res 816 48 R0
SYMATTR InstName RL
SYMATTR Value 50
SYMBOL ind 112 16 R270
WINDOW 0 32 56 VTop 2
WINDOW 3 5 56 VBottom 2
WINDOW 39 -36 57 VTop 1
SYMATTR InstName L1
SYMATTR Value 280n
SYMATTR SpiceLine Rser=735.1m
TEXT 16 -288 Left 2 !.ac dec 1001 11.60Meg 181.2Meg
TEXT 16 -240 Left 2 !.net I(RL) V1
TEXT 480 -288 Left 2 ;5th Order Chebyshev Lowpass\nShunt First\nCutoff Frequency = 29 MHz\nPassband Ripple = 0.10 dB\n\nrf-tools.com | Jun 17 2022 16:44
TEXT 480 -128 Left 2 ;Inductor Q Factor = 100 at 30.00MHz
