Version 4
SHEET 1 964 816
WIRE -48 16 -144 16
WIRE 240 16 -48 16
WIRE 240 128 240 96
WIRE 240 128 160 128
WIRE 240 144 240 128
WIRE 448 144 352 144
WIRE 96 176 96 128
WIRE -144 208 -144 16
WIRE 352 288 352 224
WIRE 448 288 448 224
WIRE -144 320 -144 288
WIRE 240 352 128 352
WIRE 240 352 240 224
WIRE 128 368 128 352
WIRE 240 448 240 352
WIRE -80 496 -144 496
WIRE 32 496 -16 496
WIRE 128 496 128 448
WIRE 128 496 32 496
WIRE 176 496 128 496
WIRE 32 512 32 496
WIRE -144 560 -144 496
WIRE 240 576 240 544
WIRE 320 576 240 576
WIRE 112 592 32 592
WIRE 112 640 112 592
WIRE -144 688 -144 640
WIRE 320 704 320 656
WIRE 240 784 240 656
WIRE 320 784 320 768
WIRE 320 784 240 784
WIRE 320 800 320 784
FLAG 320 800 0
FLAG 112 640 0
FLAG 96 176 0
FLAG -48 16 vcc
FLAG -144 688 0
FLAG 352 288 0
FLAG 448 288 0
FLAG -144 320 0
DATAFLAG 160 496 "$"
DATAFLAG 288 576 "$"
DATAFLAG 176 128 "$"
SYMBOL npn 176 448 R0
SYMATTR InstName Q2
SYMATTR Value 2N3904
SYMBOL voltage -144 192 R0
SYMATTR InstName V1
SYMATTR Value 9
SYMBOL voltage -144 544 R0
SYMATTR InstName V2
SYMATTR Value SINE(0 0.1 20Meg)
SYMATTR Value2 AC 1
SYMATTR SpiceLine Rser=50
SYMBOL cap 160 112 R90
WINDOW 0 0 32 VBottom 2
WINDOW 3 32 32 VTop 2
SYMATTR InstName C1
SYMATTR Value 100n
SYMBOL cap -16 480 R90
WINDOW 0 0 32 VBottom 2
WINDOW 3 32 32 VTop 2
SYMATTR InstName C2
SYMATTR Value 10n
SYMBOL ind2 224 128 R0
SYMATTR InstName L1
SYMATTR Value 4µ
SYMATTR Type ind
SYMBOL ind2 368 240 R180
WINDOW 0 36 80 Left 2
WINDOW 3 36 40 Left 2
SYMATTR InstName L2
SYMATTR Value 4µ
SYMATTR Type ind
SYMBOL res 224 560 R0
SYMATTR InstName R1
SYMATTR Value 100
SYMBOL res 224 0 R0
SYMATTR InstName R2
SYMATTR Value 0
SYMBOL res 16 496 R0
SYMATTR InstName R4
SYMATTR Value 100
SYMBOL cap 336 768 R180
WINDOW 0 24 56 Left 2
WINDOW 3 24 8 Left 2
SYMATTR InstName C4
SYMATTR Value 100n
SYMBOL res 432 128 R0
SYMATTR InstName RL
SYMATTR Value 50
SYMBOL res 304 560 R0
SYMATTR InstName R7
SYMATTR Value 2.2
SYMBOL res 112 352 R0
SYMATTR InstName R5
SYMATTR Value 390
TEXT 256 128 Left 2 !K L1 L2 1.0
TEXT 320 440 Left 2 !.ac dec 1001 1Meg 1000Meg\n.net I(RL) V2
TEXT 344 488 Left 2 ;.tran 1n 2u
