Version 4
SHEET 1 2916 1064
WIRE -48 16 -144 16
WIRE 240 16 -48 16
WIRE 448 16 240 16
WIRE 768 16 448 16
WIRE 848 16 768 16
WIRE 768 32 768 16
WIRE 848 48 848 16
WIRE 448 64 448 16
WIRE 240 128 240 96
WIRE 240 128 160 128
WIRE 240 144 240 128
WIRE 448 144 384 144
WIRE 848 144 848 128
WIRE 848 144 672 144
WIRE 96 176 96 128
WIRE 672 192 672 144
WIRE -144 208 -144 16
WIRE 592 240 448 240
WIRE 608 240 592 240
WIRE 848 256 848 144
WIRE 240 304 240 224
WIRE 240 304 112 304
WIRE 448 304 448 240
WIRE -144 320 -144 288
WIRE 672 320 672 288
WIRE 848 384 848 336
WIRE 112 400 112 304
WIRE 384 400 384 144
WIRE 448 400 448 384
WIRE 448 400 384 400
WIRE 480 400 448 400
WIRE 592 400 592 384
WIRE 592 400 544 400
WIRE 672 400 592 400
WIRE 912 416 912 384
WIRE 448 432 448 400
WIRE 672 432 672 400
WIRE 240 448 240 304
WIRE 592 448 592 400
WIRE 848 448 848 384
WIRE 544 464 544 400
WIRE 1248 480 1136 480
WIRE -32 496 -144 496
WIRE 112 496 112 480
WIRE 112 496 32 496
WIRE 176 496 112 496
WIRE 112 512 112 496
WIRE 672 544 672 512
WIRE -144 560 -144 496
WIRE 1248 560 1136 560
WIRE 240 576 240 544
WIRE 320 576 240 576
WIRE 448 592 448 512
WIRE 592 592 448 592
WIRE 608 592 592 592
WIRE 1248 592 1248 560
WIRE 112 640 112 592
WIRE 384 656 384 400
WIRE 480 656 384 656
WIRE 560 656 480 656
WIRE 560 672 560 656
WIRE -144 688 -144 640
WIRE 480 688 480 656
WIRE 320 704 320 656
WIRE 672 704 672 640
WIRE 848 704 848 528
WIRE 848 704 672 704
WIRE 480 768 480 752
WIRE 240 784 240 656
WIRE 320 784 320 768
WIRE 320 784 240 784
WIRE 320 800 320 784
WIRE 560 800 560 736
WIRE 480 896 480 848
FLAG 320 800 0
FLAG 112 640 0
FLAG 96 176 0
FLAG -48 16 vcc
FLAG -144 688 0
FLAG -144 320 0
FLAG 768 96 0
FLAG 1248 592 0
FLAG 544 464 0
FLAG 480 896 0
FLAG 912 416 0
FLAG 560 800 0
DATAFLAG 752 16 "$"
DATAFLAG 160 496 "$"
DATAFLAG 288 576 "$"
DATAFLAG 176 128 "$"
DATAFLAG 528 240 "$"
DATAFLAG 448 656 "$"
SYMBOL npn 176 448 R0
SYMATTR InstName Q2
SYMATTR Value 2N3904
SYMBOL voltage -144 192 R0
SYMATTR InstName V1
SYMATTR Value 13
SYMBOL voltage -144 544 R0
SYMATTR InstName V2
SYMATTR Value SINE(0 0.4 21Meg)
SYMATTR Value2 AC 1
SYMATTR SpiceLine Rser=50
SYMBOL cap 752 32 R0
SYMATTR InstName C1
SYMATTR Value 100n
SYMBOL cap 32 480 R90
WINDOW 0 0 32 VBottom 2
WINDOW 3 32 32 VTop 2
SYMATTR InstName C2
SYMATTR Value 1n
SYMBOL ind2 224 128 R0
SYMATTR InstName L1
SYMATTR Value 4µ
SYMATTR Type ind
SYMBOL res 224 560 R0
SYMATTR InstName R1
SYMATTR Value 50
SYMBOL res 224 0 R0
SYMATTR InstName R2
SYMATTR Value 100
SYMBOL res 96 384 R0
SYMATTR InstName R3
SYMATTR Value 3k
SYMBOL res 96 496 R0
SYMATTR InstName R4
SYMATTR Value 1k
SYMBOL cap 336 768 R180
WINDOW 0 24 56 Left 2
WINDOW 3 24 8 Left 2
SYMATTR InstName C4
SYMATTR Value 1n
SYMBOL res 304 560 R0
SYMATTR InstName R7
SYMATTR Value 10
SYMBOL res 656 304 R0
SYMATTR InstName R9
SYMATTR Value 5
SYMBOL cap 160 112 R90
WINDOW 0 0 32 VBottom 2
WINDOW 3 32 32 VTop 2
SYMATTR InstName C5
SYMATTR Value 100n
SYMBOL ind2 864 352 R180
WINDOW 0 36 80 Left 2
WINDOW 3 36 40 Left 2
SYMATTR InstName L3
SYMATTR Value 1.5µ
SYMATTR Type ind
SYMBOL ind2 1152 576 R180
WINDOW 0 36 80 Left 2
WINDOW 3 36 40 Left 2
SYMATTR InstName L4
SYMATTR Value 6µ
SYMATTR Type ind
SYMBOL res 1232 464 R0
SYMATTR InstName R11
SYMATTR Value 50
SYMBOL npn 608 192 R0
WINDOW 3 49 68 Left 2
SYMATTR InstName Q3
SYMATTR Value 2SC5706
SYMBOL ind2 464 400 R180
WINDOW 0 36 80 Left 2
WINDOW 3 36 40 Left 2
SYMATTR InstName L2
SYMATTR Value 1µ
SYMATTR Type ind
SYMBOL res 656 416 R0
SYMATTR InstName R5
SYMATTR Value 5
SYMBOL ind2 464 528 R180
WINDOW 0 36 80 Left 2
WINDOW 3 36 40 Left 2
SYMATTR InstName L5
SYMATTR Value 1µ
SYMATTR Type ind
SYMBOL cap 544 384 R90
WINDOW 0 0 32 VBottom 2
WINDOW 3 32 32 VTop 2
SYMATTR InstName C3
SYMATTR Value 10n
SYMBOL diode 464 688 R0
SYMATTR InstName D1
SYMATTR Value 1N4148
SYMBOL res 464 752 R0
SYMATTR InstName R6
SYMATTR Value 75
SYMBOL ind2 864 544 R180
WINDOW 0 36 80 Left 2
WINDOW 3 36 40 Left 2
SYMATTR InstName L6
SYMATTR Value 1.5µ
SYMATTR Type ind
SYMBOL cap 912 368 R90
WINDOW 0 0 32 VBottom 2
WINDOW 3 32 32 VTop 2
SYMATTR InstName C7
SYMATTR Value 100n
SYMBOL res 432 48 R0
SYMATTR InstName R8
SYMATTR Value 1k
SYMBOL cap 576 736 R180
WINDOW 0 24 56 Left 2
WINDOW 3 24 8 Left 2
SYMATTR InstName C6
SYMATTR Value 10µ
SYMBOL npn 608 640 M180
WINDOW 3 49 68 Left 2
SYMATTR InstName Q1
SYMATTR Value 2SC5706
SYMBOL ind2 864 144 R180
WINDOW 0 36 80 Left 2
WINDOW 3 36 40 Left 2
SYMATTR InstName L7
SYMATTR Value 1m
SYMATTR Type ind
SYMBOL res 576 288 R0
SYMATTR InstName R10
SYMATTR Value 220
SYMBOL cap 608 592 R180
WINDOW 0 24 56 Left 2
WINDOW 3 24 8 Left 2
SYMATTR InstName C8
SYMATTR Value 10n
SYMBOL res 576 432 R0
SYMATTR InstName R12
SYMATTR Value 220
SYMBOL cap 608 304 R180
WINDOW 0 24 56 Left 2
WINDOW 3 24 8 Left 2
SYMATTR InstName C9
SYMATTR Value 10n
TEXT 1072 760 Left 2 ;.ac dec 1001 1Meg 100Meg
TEXT 1080 800 Left 2 !.tran 1n 20u
TEXT 936 472 Left 2 !K2 L3 L6 L4 1.0
TEXT 1080 -208 Left 2 !********************** ON 2SC5706 SPICE PARAMETER *************************\n*.LIB 2SC5706                                                                 * DATE : 2016/04/06                                                           \n* Temp = 27 deg                                                               *                                                                             \n.MODEL 2SC5706 npn (       IS       = 400.0f         BF       = 300           \n+NF       = 1              VAF      = 5              IKF      =1.1            \n+ISE      = 50.00p         NE       = 2              BR       = 80            \n+NR       = 1              VAR      = 20             IKR      =1.1            \n+ISC      = 100.0p         NC       = 2              RB       =  800.0m       \n+IRB      = 100.0m         RBM      = 35.00m         RE       = 35.00m        \n+RC       = 30.00m         XTB      = 1              EG       = 1.11          \n+XTI      = 3              CJE      = 270.0p         VJE      = 700.0m        \n+MJE      = 350.0m         TF       = 340p           XTF      = 25            \n+VTF      = 30             ITF      = 5              PTF      = 0             \n+CJC      = 50.00p         VJC      = 330.0m         MJC      = 320.0m        \n+XCJC     = 1              TR       =  1.000n        FC       = 500.0m        \n+KF       = 0              AF       = 1              )                        \n*                                                                             \n*.ENDL 2SC5706                                                                *  Information herein is for example only;                                    \n*  it is not guaranteed for volume production.                                \n* ON Semiconductor
TEXT 296 168 Left 2 !K1 L1 L5 L2 1.0
TEXT 2184 232 Left 2 !**************************************\n*      Model Generated by MODPEX     *\n*Copyright(c) Symmetry Design Systems*\n*         All Rights Reserved        *\n*    UNPUBLISHED LICENSED SOFTWARE   *\n*   Contains Proprietary Information *\n*      Which is The Property of      *\n*     SYMMETRY OR ITS LICENSORS      *\n*Commercial Use or Resale Restricted *\n*   by Symmetry License Agreement    *\n**************************************\n* Model generated on Nov 16, 19\n* MODEL FORMAT: PSpice\n.MODEL Q2sa2039 pnp\n+IS=7.77692e-12 BF=257.151 NF=1.11685 VAF=29.6831\n+IKF=3.46844 ISE=4.00086e-12 NE=3.49993 BR=6.35793\n+NR=1.17824 VAR=9.04744 IKR=6.25463 ISC=1.75e-13\n+NC=4 RB=6.41025 IRB=0.176199 RBM=0.100005\n+RE=0.00060456 RC=0.140678 XTB=0.836046 XTI=1.0283\n+EG=1.05 CJE=1.27161e-10 VJE=0.802654 MJE=0.85\n+TF=3.87522e-10 XTF=1000 VTF=2944.25 ITF=113.793\n+CJC=8.6111e-11 VJC=0.430089 MJC=0.395997 XCJC=0.754502\n+FC=0.754853 CJS=0 VJS=0.75 MJS=0.5\n+TR=5.37192e-08 PTF=0 KF=0 AF=1
