Version 4
SHEET 1 1940 868
WIRE 640 -304 496 -304
WIRE 800 -304 720 -304
WIRE 832 -304 832 -368
WIRE 832 -304 800 -304
WIRE 928 -304 832 -304
WIRE 1312 -304 928 -304
WIRE 800 -256 800 -304
WIRE 416 -208 320 -208
WIRE 496 -208 496 -224
WIRE 496 -208 416 -208
WIRE 912 -208 864 -208
WIRE 928 -208 928 -224
WIRE 928 -208 912 -208
WIRE 608 -160 560 -160
WIRE 672 -160 608 -160
WIRE 784 -160 752 -160
WIRE 800 -160 784 -160
WIRE -592 -144 -592 -176
WIRE -496 -144 -496 -176
WIRE 1312 -112 1312 -304
WIRE 1312 -112 1168 -112
WIRE 1312 -80 1312 -112
WIRE -288 -64 -288 -80
WIRE 1248 -32 1168 -32
WIRE 320 -16 320 -208
WIRE 1168 -16 1168 -32
WIRE -288 32 -288 16
WIRE 256 32 -288 32
WIRE 272 32 256 32
WIRE 496 32 496 -112
WIRE 976 32 496 32
WIRE 1104 32 1056 32
WIRE -288 64 -288 32
WIRE 144 64 112 64
WIRE 1312 80 1312 16
WIRE 1312 80 1168 80
WIRE 1408 80 1312 80
WIRE 1408 96 1408 80
WIRE 320 112 320 80
WIRE 496 112 496 96
WIRE -80 128 -96 128
WIRE 144 144 144 64
WIRE -288 160 -288 144
WIRE 112 160 112 64
WIRE 416 160 416 -208
WIRE 1072 192 1024 192
WIRE 1408 192 1408 176
WIRE 1408 192 1152 192
WIRE 1536 192 1408 192
WIRE 1600 192 1584 192
WIRE 1664 192 1600 192
WIRE 1712 192 1664 192
WIRE -192 208 -224 208
WIRE -96 208 -96 128
WIRE -96 208 -112 208
WIRE -64 208 -96 208
WIRE 48 208 16 208
WIRE 320 208 320 192
WIRE 320 208 272 208
WIRE 496 208 496 192
WIRE 1408 208 1408 192
WIRE 1712 208 1712 192
WIRE 272 224 272 208
WIRE 320 224 320 208
WIRE -96 256 -96 208
WIRE -96 256 -192 256
WIRE -288 288 -288 256
WIRE 112 288 112 256
WIRE 1312 304 1168 304
WIRE 1408 304 1408 288
WIRE 1408 304 1312 304
WIRE 320 336 320 304
WIRE 1712 336 1712 288
WIRE -192 352 -192 320
WIRE 1168 352 1168 304
WIRE 112 384 112 368
WIRE 256 384 112 384
WIRE 496 400 496 272
WIRE 1024 400 496 400
WIRE 1312 400 1312 304
WIRE 912 416 912 -208
WIRE -192 448 -192 432
WIRE -96 448 -96 256
WIRE 784 448 784 -160
WIRE 1248 448 1168 448
WIRE 112 496 112 464
WIRE 496 528 496 400
WIRE 1312 528 1312 496
WIRE 1312 528 1168 528
WIRE -96 576 -96 528
WIRE 592 576 560 576
WIRE 656 576 592 576
WIRE 784 576 784 528
WIRE 784 576 736 576
WIRE 320 624 320 432
WIRE 416 624 416 224
WIRE 416 624 320 624
WIRE 496 624 416 624
WIRE 912 624 912 496
WIRE 912 624 848 624
WIRE 912 640 912 624
WIRE 592 656 592 640
WIRE 496 720 496 704
WIRE 624 720 496 720
WIRE 784 720 784 672
WIRE 784 720 704 720
WIRE 816 720 784 720
WIRE 912 720 816 720
WIRE 1312 720 1312 528
WIRE 1312 720 912 720
WIRE 816 784 816 720
WIRE 0 0 0 0
FLAG -592 -64 0
FLAG -496 -64 0
FLAG -592 -176 +15
FLAG -496 -176 -15
FLAG 112 496 -15
FLAG 144 144 0
FLAG -288 288 0
FLAG -288 -80 +15
FLAG 272 224 0
FLAG 592 656 0
FLAG 832 -368 +15
FLAG 816 784 -15
FLAG 1712 336 0
FLAG -192 448 0
FLAG 1664 192 vout
FLAG -96 576 0
FLAG 608 -96 0
FLAG -80 128 vin
FLAG 1024 192 vin
DATAFLAG -96 32 "$"
DATAFLAG 208 384 "$"
DATAFLAG 864 624 "$"
DATAFLAG 608 576 "$"
DATAFLAG 896 -208 "$"
DATAFLAG 512 720 "$"
DATAFLAG 560 -304 "$"
DATAFLAG -80 208 "$"
SYMBOL pnp -224 256 R180
SYMATTR InstName Q1
SYMATTR Value BC557B
SYMBOL npn 48 160 R0
SYMATTR InstName Q2
SYMATTR Value BC547B
SYMBOL voltage -592 -160 R0
SYMATTR InstName V1
SYMATTR Value 15
SYMATTR SpiceLine Rser=0
SYMBOL voltage -496 -160 R0
SYMATTR InstName V2
SYMATTR Value -15
SYMBOL res 96 272 R0
SYMATTR InstName R1
SYMATTR Value 15
SYMBOL res 96 368 R0
SYMATTR InstName R2
SYMATTR Value 820
SYMBOL res 32 192 R90
WINDOW 0 0 56 VBottom 2
WINDOW 3 32 56 VTop 2
SYMATTR InstName R3
SYMATTR Value 10
SYMBOL res -96 192 R90
WINDOW 0 0 56 VBottom 2
WINDOW 3 32 56 VTop 2
SYMATTR InstName R4
SYMATTR Value 10
SYMBOL res -304 48 R0
SYMATTR InstName R5
SYMATTR Value 15
SYMBOL res -304 -80 R0
SYMATTR InstName R6
SYMATTR Value 820
SYMBOL npn 256 -16 R0
SYMATTR InstName Q3
SYMATTR Value BC547B
SYMBOL pnp 256 432 M180
SYMATTR InstName Q4
SYMATTR Value BC557B
SYMBOL res 304 96 R0
SYMATTR InstName R7
SYMATTR Value 10
SYMBOL res 304 208 R0
SYMATTR InstName R8
SYMATTR Value 10
SYMBOL pnp 560 -112 R180
SYMATTR InstName Q5
SYMATTR Value BC557B
SYMBOL npn 560 528 M0
SYMATTR InstName Q6
SYMATTR Value BC547B
SYMBOL diode 480 208 R0
SYMATTR InstName D2
SYMATTR Value 1N4148
SYMBOL res 480 96 R0
SYMATTR InstName R9
SYMATTR Value 3
SYMBOL cap 576 576 R0
SYMATTR InstName C1
SYMATTR Value 10n
SYMBOL cap 592 -160 R0
SYMATTR InstName C2
SYMATTR Value 10n
SYMBOL res 768 -176 R90
WINDOW 0 0 56 VBottom 2
WINDOW 3 32 56 VTop 2
SYMATTR InstName R10
SYMATTR Value 10
SYMBOL npn 864 -256 M0
SYMATTR InstName Q7
SYMATTR Value BC547B
SYMBOL res 736 -320 R90
WINDOW 0 0 56 VBottom 2
WINDOW 3 32 56 VTop 2
SYMATTR InstName R12
SYMATTR Value 10
SYMBOL res 944 -208 R180
WINDOW 0 36 76 Left 2
WINDOW 3 34 50 Left 2
SYMATTR InstName R13
SYMATTR Value 250
SYMBOL res 752 592 M270
WINDOW 0 32 56 VTop 2
WINDOW 3 0 56 VBottom 2
SYMATTR InstName R16
SYMATTR Value 10
SYMBOL res 928 624 M0
SYMATTR InstName R17
SYMATTR Value 250
SYMBOL pnp 848 672 R180
WINDOW 0 54 28 Left 2
WINDOW 3 20 52 Left 2
SYMATTR InstName Q8
SYMATTR Value BC557B
SYMBOL voltage -96 432 R0
WINDOW 39 24 118 Left 2
SYMATTR SpiceLine Rser=50
SYMATTR InstName V3
SYMATTR Value SINE(0 0.1 21Meg)
SYMATTR Value2 AC 1
SYMBOL res 1424 192 R180
WINDOW 0 36 76 Left 2
WINDOW 3 36 40 Left 2
SYMATTR InstName R21
SYMATTR Value 5
SYMBOL res 1424 304 R180
WINDOW 0 36 76 Left 2
WINDOW 3 36 40 Left 2
SYMATTR InstName R22
SYMATTR Value 5
SYMBOL res 1728 304 R180
WINDOW 0 36 76 Left 2
WINDOW 3 36 40 Left 2
SYMATTR InstName RL
SYMATTR Value 50
SYMBOL diode 480 32 R0
SYMATTR InstName D1
SYMATTR Value 1N4148
SYMBOL res 720 704 R90
WINDOW 0 0 56 VBottom 2
WINDOW 3 32 56 VTop 2
SYMATTR InstName R24
SYMATTR Value 10
SYMBOL cap -208 256 R0
SYMATTR InstName C4
SYMATTR Value 68n
SYMBOL res -208 336 R0
SYMATTR InstName R25
SYMATTR Value 50
SYMBOL res 1072 16 R90
WINDOW 0 0 56 VBottom 2
WINDOW 3 32 56 VTop 2
SYMATTR InstName R11
SYMATTR Value 10
SYMBOL res 1120 384 R90
WINDOW 0 0 56 VBottom 2
WINDOW 3 32 56 VTop 2
SYMATTR InstName R19
SYMATTR Value 10
SYMBOL res 1168 176 R90
WINDOW 0 0 56 VBottom 2
WINDOW 3 32 56 VTop 2
SYMATTR InstName R20
SYMATTR Value 2k
SYMBOL cap 400 160 R0
SYMATTR InstName C3
SYMATTR Value 10n
SYMBOL res 896 400 R0
SYMATTR InstName R14
SYMATTR Value 3.3k
SYMBOL res 768 432 R0
SYMATTR InstName R15
SYMATTR Value 7.8k
SYMBOL npn 1248 400 R0
SYMATTR InstName Q10
SYMATTR Value 2SC5706
SYMBOL cap 1600 176 R90
WINDOW 0 0 32 VBottom 2
WINDOW 3 32 32 VTop 2
SYMATTR InstName C5
SYMATTR Value 10n
SYMBOL ind 480 -320 R0
SYMATTR InstName L1
SYMATTR Value 1.5µ
SYMBOL ind 480 608 R0
SYMATTR InstName L2
SYMATTR Value 1.5µ
SYMBOL npn 1104 -16 R0
SYMATTR InstName Q11
SYMATTR Value BC547B
SYMBOL pnp 1248 16 M180
SYMATTR InstName Q12
SYMATTR Value Q2sa2039
SYMBOL pnp 1104 448 M180
WINDOW 0 54 28 Left 2
WINDOW 3 20 52 Left 2
SYMATTR InstName Q13
SYMATTR Value BC557B
SYMBOL res 1184 -16 R180
WINDOW 0 36 76 Left 2
WINDOW 3 36 40 Left 2
SYMATTR InstName R18
SYMATTR Value 1k
SYMBOL res 1184 544 R180
WINDOW 0 36 76 Left 2
WINDOW 3 36 40 Left 2
SYMATTR InstName R23
SYMATTR Value 1k
TEXT -544 40 Left 2 !.ac dec 1001 100k 200Meg
TEXT 1200 -448 Left 2 !.lib /home/ning/Library/SpiceModel/2SC5706.lib
TEXT 1200 -416 Left 2 !.lib /home/ning/Library/SpiceModel/2SA2039.lib
TEXT -528 104 Left 2 ;.tran 0 5u 3u 1n
