Version 4
SHEET 1 1704 1028
WIRE 128 -160 0 -160
WIRE 288 -160 128 -160
WIRE 560 -160 288 -160
WIRE 1024 -160 560 -160
WIRE 288 -80 288 -160
WIRE 560 -32 560 -160
WIRE -144 16 -256 16
WIRE -48 16 -144 16
WIRE 0 16 0 -160
WIRE 0 16 -48 16
WIRE 1024 16 1024 -160
WIRE 1024 16 864 16
WIRE 288 64 288 0
WIRE 368 64 288 64
WIRE 480 64 432 64
WIRE 560 64 560 48
WIRE 560 64 480 64
WIRE 704 64 560 64
WIRE 784 64 704 64
WIRE 800 64 784 64
WIRE 1024 64 1024 16
WIRE -256 80 -256 16
WIRE 560 96 560 64
WIRE 880 112 864 112
WIRE 864 144 864 112
WIRE 1232 144 1120 144
WIRE -144 160 -144 16
WIRE 704 160 704 64
WIRE 1120 160 1120 144
WIRE 1120 160 1024 160
WIRE 784 176 784 64
WIRE -256 208 -256 160
WIRE 560 208 560 176
WIRE 640 208 560 208
WIRE 1360 224 1232 224
WIRE 1488 224 1424 224
WIRE 1552 224 1488 224
WIRE 448 240 448 208
WIRE 560 240 560 208
WIRE 1232 240 1232 224
WIRE 1552 240 1552 224
WIRE 864 272 864 224
WIRE 128 288 128 -160
WIRE 288 288 288 64
WIRE 1120 304 1024 304
WIRE 1120 320 1120 304
WIRE 1232 320 1120 320
WIRE -240 336 -448 336
WIRE -144 336 -144 240
WIRE -144 336 -176 336
WIRE 64 336 -144 336
WIRE 448 336 448 320
WIRE 448 336 352 336
WIRE 512 336 448 336
WIRE -144 352 -144 336
WIRE 448 352 448 336
WIRE 560 352 560 320
WIRE 704 352 704 256
WIRE 704 352 560 352
WIRE 784 352 784 240
WIRE 784 352 704 352
WIRE 880 352 864 352
WIRE 1552 368 1552 320
WIRE -448 384 -448 336
WIRE 560 400 560 352
WIRE 784 400 784 352
WIRE 800 400 784 400
WIRE 1024 448 1024 400
WIRE 1024 448 864 448
WIRE 176 464 128 464
WIRE 288 464 176 464
WIRE 448 464 448 432
WIRE 448 464 400 464
WIRE 400 496 400 464
WIRE -448 512 -448 464
WIRE -144 512 -144 432
WIRE -144 512 -448 512
WIRE -144 528 -144 512
WIRE 432 560 352 560
WIRE 560 560 560 480
WIRE 1024 560 1024 448
WIRE 352 656 352 640
WIRE 352 656 256 656
WIRE 176 672 176 464
WIRE 352 672 352 656
WIRE 512 688 512 336
WIRE 576 688 512 688
WIRE 256 720 256 656
WIRE 256 720 240 720
WIRE 288 720 256 720
WIRE 176 896 176 768
WIRE 352 896 352 768
WIRE 352 896 176 896
WIRE 176 912 176 896
FLAG 1552 368 0
FLAG -144 528 0
FLAG -256 208 0
FLAG 480 64 vas
FLAG 560 560 0
FLAG 1488 224 vout
FLAG -48 16 Vcc
FLAG 432 560 Vcc
FLAG 176 912 0
FLAG 400 496 0
FLAG 448 208 Vcc
FLAG 1024 560 0
FLAG 640 688 0
DATAFLAG -64 336 "$"
DATAFLAG 928 16 ""
DATAFLAG 688 64 ""
DATAFLAG 624 352 ""
DATAFLAG 1344 224 ""
DATAFLAG 192 464 "$"
DATAFLAG 336 64 "$"
SYMBOL npn3 64 288 R0
SYMATTR InstName Q1
SYMATTR Value 2N3904
SYMBOL npn3 352 288 M0
SYMATTR InstName Q2
SYMATTR Value 2N3904
SYMBOL res -160 336 R0
SYMATTR InstName R1
SYMATTR Value 1.3k
SYMBOL res -160 144 R0
SYMATTR InstName R2
SYMATTR Value 18k
SYMBOL res 272 -96 R0
SYMATTR InstName R7
SYMATTR Value 1.3k
SYMBOL res 1536 224 R0
SYMATTR InstName RL
SYMATTR Value 50
SYMBOL voltage -256 64 R0
SYMATTR InstName V1
SYMATTR Value 26
SYMBOL voltage -448 368 R0
WINDOW 3 14 107 Left 2
WINDOW 39 14 129 Left 2
SYMATTR Value SINE(0 0.2 21Meg)
SYMATTR SpiceLine Rser=50
SYMATTR InstName V2
SYMATTR Value2 AC 1
SYMBOL cap 432 48 R90
WINDOW 0 0 32 VBottom 2
WINDOW 3 32 32 VTop 2
SYMATTR InstName C2
SYMATTR Value 100p
SYMBOL cap -240 352 R270
WINDOW 0 32 32 VTop 2
WINDOW 3 0 32 VBottom 2
SYMATTR InstName C4
SYMATTR Value 68p
SYMBOL pnp 640 256 M180
WINDOW 0 14 49 Left 2
WINDOW 3 -20 24 Left 2
SYMATTR InstName Q3
SYMATTR Value BC557B
SYMBOL res 544 -48 R0
SYMATTR InstName R8
SYMATTR Value 4.7k
SYMBOL res 544 80 R0
SYMATTR InstName R9
SYMATTR Value 2.5k
SYMBOL res 544 224 R0
SYMATTR InstName R10
SYMATTR Value 7.5k
SYMBOL res 544 384 R0
SYMATTR InstName R11
SYMATTR Value 4.7k
SYMBOL pnp 800 448 M180
WINDOW 3 133 42 Left 2
SYMATTR InstName Q4
SYMATTR Value BC557B
SYMBOL npn 800 16 R0
SYMATTR InstName Q5
SYMATTR Value BC547B
SYMBOL res 1216 128 R0
SYMATTR InstName R12
SYMATTR Value 5
SYMBOL res 1216 224 R0
SYMATTR InstName R13
SYMATTR Value 5
SYMBOL cap 800 240 R180
WINDOW 0 24 56 Left 2
WINDOW 3 24 8 Left 2
SYMATTR InstName C5
SYMATTR Value 10n
SYMBOL npn 960 64 R0
SYMATTR InstName Q7
SYMATTR Value 2SC5706
SYMBOL pnp 960 400 M180
SYMATTR InstName Q8
SYMATTR Value Q2sa2039
SYMBOL npn 288 672 R0
SYMATTR InstName Q6
SYMATTR Value BC547B
SYMBOL res 336 544 R0
SYMATTR InstName R3
SYMATTR Value 1.3k
SYMBOL cap 576 704 R270
WINDOW 0 32 32 VTop 2
WINDOW 3 0 32 VBottom 2
SYMATTR InstName C1
SYMATTR Value 68n
SYMBOL res 432 224 R0
SYMATTR InstName R5
SYMATTR Value 18k
SYMBOL res 432 336 R0
SYMATTR InstName R6
SYMATTR Value 1.3k
SYMBOL cap 1424 208 R90
WINDOW 0 0 32 VBottom 2
WINDOW 3 32 32 VTop 2
SYMATTR InstName C3
SYMATTR Value 100n
SYMBOL npn 240 672 M0
SYMATTR InstName Q9
SYMATTR Value BC547B
SYMBOL res 848 128 R0
SYMATTR InstName R4
SYMATTR Value 49
SYMBOL res 848 256 R0
SYMATTR InstName R14
SYMATTR Value 49
SYMBOL res 976 96 R90
WINDOW 0 0 56 VBottom 2
WINDOW 3 32 56 VTop 2
SYMATTR InstName R15
SYMATTR Value 5
SYMBOL res 976 336 R90
WINDOW 0 0 56 VBottom 2
WINDOW 3 32 56 VTop 2
SYMATTR InstName R16
SYMATTR Value 5
SYMBOL res 112 368 R0
SYMATTR InstName R17
SYMATTR Value 10
SYMBOL res 272 368 R0
SYMATTR InstName R18
SYMATTR Value 3
TEXT -560 576 Left 2 ;.ac dec 201 1Meg 100Meg
TEXT -536 632 Left 2 !.tran 2n 5u
TEXT -544 608 Left 2 ;.net I(RL) V2
TEXT 1128 512 Left 2 !.lib /home/ning/Library/SpiceModel/2SC5706.lib
TEXT 1120 48 Left 2 !.lib /home/ning/Library/SpiceModel/2SA2039.lib
TEXT -536 656 Left 2 ;.op
